
Marvin  12010510582D          

  4  3  0  0  0  0            999 V2000
    0.3572   -0.2063    0.0000 O   0  0  0  0  0  0  0  0  0  0  0  0
   -0.3572    0.2063    0.0000 O   0  0  0  0  0  0  0  0  0  0  0  0
   -1.0717   -0.2062    0.0000 H   0  0  0  0  0  0  0  0  0  0  0  0
    1.0717    0.2062    0.0000 H   0  0  0  0  0  0  0  0  0  0  0  0
  1  2  1  0  0  0  0
  3  2  1  0  0  0  0
  4  1  1  0  0  0  0
M  END
> <ID>
CHEBI:16240

> <NAME>
hydrogen peroxide

> <DEFINITION>
An inorganic peroxide consisting of two hydroxy groups joined by a covalent oxygen-oxygen single bond.

> <STAR>
3

> <SECONDARY_ID>
CHEBI:44812; CHEBI:5586; CHEBI:13354; CHEBI:13355; CHEBI:24637

> <SYNONYM>
perhydrol; Oxydol; HYDROGEN PEROXIDE; Hydrogen peroxide; HOOH; H2O2; H(2)O(2); H2O2; dihydrogen dioxide; [OH(OH)]

> <IUPAC_NAME>
hydrogen peroxide; dioxidane; dihydrogen(peroxide); dihydrogen peroxide; bis(hydridooxygen)(O--O)

> <FORMULA>
H2O2

> <MASS>
34.01468

> <MONOISOTOPIC_MASS>
34.00548

> <CHARGE>
0

> <SMILES>
[H]OO[H]

> <INCHI>
InChI=1S/H2O2/c1-2/h1-2H

> <INCHIKEY>
MHAJPDPJQMAIIY-UHFFFAOYSA-N

> <BEILSTEIN_REGISTRY_NUMBER>
3587191

> <CAS_REGISTRY_NUMBER>
7722-84-1

> <GMELIN_REGISTRY_NUMBER>
509

> <REAXYS_REGISTRY_NUMBER>
3587191

> <CHEMIDPLUS>
7722-84-1

> <KEGG_COMPOUND_ACCESSION>
C00027

> <KEGG_DRUG_ACCESSION>
D00008

> <METACYC_ACCESSION>
HYDROGEN-PEROXIDE

> <MOLBASE_ACCESSION>
932

> <NIST_CHEMISTRY_WEBBOOK>
7722-84-1

> <PDBECHEM_ACCESSION>
PEO

> <WIKIPEDIA_ACCESSION>
Hydrogen_peroxide

> <PUBMED_CITATION>
10455187; 10557015; 10849784; 11033421; 11105916; 11318558; 11387393; 11809417; 11864786; 11893576; 12867293; 12934880; 14679422; 15028418; 15133946; 15298493; 16337875; 16463018; 16864869; 17020896; 17179007; 17610934; 17948137; 18179203; 18182702; 18306736; 18443210; 18592736; 19107210; 19229032; 19297450; 19509065; 26352695; 26365231; 7548021; 7581816; 8048546; 8375042; 8451754; 9051670; 9100841; 9168257; 9202721; 9558114

$$$$
